/*--------------------------------*- C++ -*----------------------------------*\
| =========                 |                                                 |
| \\      /  F ield         | foam-extend: Open Source CFD                    |
|  \\    /   O peration     | Version:     3.0                                |
|   \\  /    A nd           | Web:         http://www.extend-project.de       |
|    \\/     M anipulation  |                                                 |
\*---------------------------------------------------------------------------*/
FoamFile
{
    version     2.0;
    format      ascii;
    class       dictionary;
    object      mechanicalProperties;
}
// * * * * * * * * * * * * * * * * * * * * * * * * * * * * * * * * * * * * * //

planeStress no;

mechanical
(
    /*vessel
    {
        type        neoHookeanElastic;
        rho         rho [1 -3 0 0 0 0 0] 1100;
        E           E [1 -1 -2 0 0 0 0] 1e5;
        nu          nu [0 0 0 0 0 0 0] 0.45;
    }*/

    vessel
    {
        type            linearElastic;
        rho             rho [1 -3 0 0 0 0 0]  1100;
        E               E   [1 -1 -2 0 0 0 0] 1e5;
        nu              nu  [0 0 0 0 0 0 0]   0.45;
    }
/*
GentElastic
incompressibleMooneyRivlin

StVenantKirchhoffElastic
StVenantKirchhoffOrthotropicElastic


neoHookeanElasticMisesPlastic
viscoNeoHookeanElastic
neoHookeanElastic
*/

);

// ************************************************************************* //
