/*--------------------------------*- C++ -*----------------------------------*\
| =========                 |                                                 |
| \\      /  F ield         | foam-extend: Open Source CFD                    |
|  \\    /   O peration     | Version:     3.0                                |
|   \\  /    A nd           | Web:         http://www.extend-project.de       |
|    \\/     M anipulation  |                                                 |
\*---------------------------------------------------------------------------*/
FoamFile
{
    version     2.0;
    format      ascii;
    class       dictionary;
    object      fvSchemes;
}
// * * * * * * * * * * * * * * * * * * * * * * * * * * * * * * * * * * * * * //

d2dt2Schemes
{
    default            Euler;
}

ddtSchemes
{
    default            Euler;
}

gradSchemes
{
    default            extendedLeastSquares 0;
}

divSchemes
{
    default            Gauss linear;
}

laplacianSchemes
{
    default            none;
    laplacian(DD,D)    Gauss linear corrected;//Gauss linear skewCorrected 1;//Gauss linear corrected
    laplacian(DDD,DD)  Gauss linear corrected;//Gauss linear skewCorrected 1;//Gauss linear corrected
}

snGradSchemes
{
    default            none;
    snGrad(D)          corrected;//Gauss linear skewCorrected 1;//corrected;
    snGrad(DD)         corrected;//Gauss linear skewCorrected 1;//corrected;
}

interpolationSchemes
{
    default            none;
    interpolate(impK)  linear;
    interpolate(grad(D)) linear;
    interpolate(grad(DD)) linear;

    interpolate(sigma0) linear;
}

// ************************************************************************* //
